234
     RDKit          3D

 38 40  0  0  1  0  0  0  0  0999 V2000
   27.5728    1.5601  -11.1459 O   0  0  0  0  0  0  0  0  0  0  0  0
   27.1536    0.3088  -11.6552 C   0  0  2  0  0  0  0  0  0  0  0  0
   26.5252    0.3787  -13.0559 C   0  0  0  0  0  0  0  0  0  0  0  0
   25.0351    0.5810  -12.8466 C   0  0  0  0  0  0  0  0  0  0  0  0
   24.8123   -0.0916  -11.5082 C   0  0  0  0  0  0  0  0  0  0  0  0
   26.0213   -0.2538  -10.8166 C   0  0  0  0  0  0  0  0  0  0  0  0
   26.0217   -0.7899   -9.5190 C   0  0  0  0  0  0  0  0  0  0  0  0
   24.8061   -1.1035   -8.9088 C   0  0  0  0  0  0  0  0  0  0  0  0
   23.6060   -0.9317   -9.5917 C   0  0  0  0  0  0  0  0  0  0  0  0
   23.6085   -0.4312  -10.8990 C   0  0  0  0  0  0  0  0  0  0  0  0
   22.4887   -0.2465  -11.6759 O   0  0  0  0  0  0  0  0  0  0  0  0
   21.2536   -0.5375  -11.1765 C   0  0  0  0  0  0  0  0  0  0  0  0
   20.6850   -1.7900  -11.3895 C   0  0  0  0  0  0  0  0  0  0  0  0
   19.4306   -2.0624  -10.8562 C   0  0  0  0  0  0  0  0  0  0  0  0
   18.6842   -3.5700  -11.0979 Cl  0  0  0  0  0  0  0  0  0  0  0  0
   18.7499   -1.1042  -10.1192 C   0  0  0  0  0  0  0  0  0  0  0  0
   19.2995    0.1632   -9.9426 C   0  0  0  0  0  0  0  0  0  0  0  0
   18.5790    1.1976   -9.2292 C   0  0  0  0  0  0  0  0  0  0  0  0
   20.5645    0.4307  -10.4478 C   0  0  0  0  0  0  0  0  0  0  0  0
   27.5212   -1.0658   -8.5765 S   0  0  0  0  0  0  0  0  0  0  0  0
   27.2091   -1.9751   -7.4734 O   0  0  0  0  0  0  0  0  0  0  0  0
   28.6014   -1.4067   -9.5003 O   0  0  0  0  0  0  0  0  0  0  0  0
   27.9046    0.6147   -7.8636 C   0  0  0  0  0  0  0  0  0  0  0  0
   27.0583    1.3232  -13.8300 F   0  0  0  0  0  0  0  0  0  0  0  0
   26.6754   -0.7993  -13.6647 F   0  0  0  0  0  0  0  0  0  0  0  0
   18.0104    2.0266   -8.6666 N   0  0  0  0  0  0  0  0  0  0  0  0
   28.3370    1.8866  -11.6617 H   0  0  0  0  0  0  0  0  0  0  0  0
   28.0013   -0.3730  -11.7036 H   0  0  0  0  0  0  0  0  0  0  0  0
   24.4365    0.1828  -13.6670 H   0  0  0  0  0  0  0  0  0  0  0  0
   24.7950    1.6418  -12.7665 H   0  0  0  0  0  0  0  0  0  0  0  0
   24.7820   -1.4948   -7.9039 H   0  0  0  0  0  0  0  0  0  0  0  0
   22.6892   -1.2153   -9.0980 H   0  0  0  0  0  0  0  0  0  0  0  0
   21.2216   -2.5514  -11.9357 H   0  0  0  0  0  0  0  0  0  0  0  0
   17.8153   -1.3857   -9.6829 H   0  0  0  0  0  0  0  0  0  0  0  0
   21.0238    1.3833  -10.2559 H   0  0  0  0  0  0  0  0  0  0  0  0
   28.8492    0.5007   -7.3454 H   0  0  0  0  0  0  0  0  0  0  0  0
   27.1052    0.9088   -7.1861 H   0  0  0  0  0  0  0  0  0  0  0  0
   28.0235    1.3382   -8.6638 H   0  0  0  0  0  0  0  0  0  0  0  0
  1  2  1  0
  1 27  1  0
  2  3  1  0
  2  6  1  0
  2 28  1  6
  3  4  1  0
  3 24  1  0
  3 25  1  0
  4  5  1  0
  4 29  1  0
  4 30  1  0
  5  6  2  0
  5 10  1  0
  6  7  1  0
  7  8  2  0
  7 20  1  0
  8  9  1  0
  8 31  1  0
  9 10  2  0
  9 32  1  0
 10 11  1  0
 11 12  1  0
 12 13  2  0
 12 19  1  0
 13 14  1  0
 13 33  1  0
 14 15  1  0
 14 16  2  0
 16 17  1  0
 16 34  1  0
 17 18  1  0
 17 19  2  0
 18 26  3  0
 19 35  1  0
 20 21  2  0
 20 22  2  0
 20 23  1  0
 23 36  1  0
 23 37  1  0
 23 38  1  0
M  END
>  <i_m_Source_File_Index>  (1) 
4

>  <i_mpc_Hbond_Acceptors>  (1) 
5

>  <i_mpc_Hbond_Donors>  (1) 
1

>  <i_mpc_Rotatable_Bonds>  (1) 
4

>  <r_mpc_ALogP>  (1) 
3.1912

>  <r_mpc_Molecular_Weight>  (1) 
399.803

>  <r_mpc_Polar_Surface_Area>  (1) 
95.77

>  <IC50[uM](SPA)>  (1) 
0.026

>  <s_m_Source_File>  (1) 
ligands.sdf

>  <s_m_Source_Path>  (1) 
C:\Users\huangc67\Documents\projects\FEP\Uni-FEP\fep-benchmark-master\hif2a

>  <s_m_entry_name>  (1) 
ligands.4

>  <s_mpc_SMILES>  (1) 
N#Cc1cc(cc(Cl)c1)Oc(c(c23)CC(F)(F)[C@H]2O)ccc3S(=O)(=O)C

>  <ID>  (1) 
234

>  <lm5_entropy_jk>  (1) 
29.3822450894047

>  <number_of_rotatable_bonds>  (1) 
3

>  <dG_FEP>  (1) 
9.78

>  <dG_SQM_Score>  (1) 
-41.411018814752154

>  <dG_SQM>  (1) 
9.93729303049548

>  <dG_EXPT>  (1) 
10.347848892211914

>  <system>  (1) 
HIF2a_PT_Neq42

$$$$
