RO7781280-000
     RDKit          3D

 82 87  0  0  1  0  0  0  0  0999 V2000
  -57.4650  -10.4790   55.7340 C   0  0  0  0  0  0  0  0  0  0  0  0
  -52.3370  -13.6500   55.8360 C   0  0  0  0  0  0  0  0  0  0  0  0
  -51.7590  -11.4240   58.7880 C   0  0  0  0  0  0  0  0  0  0  0  0
  -56.1590  -10.8210   56.0380 C   0  0  0  0  0  0  0  0  0  0  0  0
  -53.6650  -13.4100   55.5820 C   0  0  0  0  0  0  0  0  0  0  0  0
  -57.7700  -15.3190   50.5350 C   0  0  0  0  0  0  0  0  0  0  0  0
  -59.2330  -14.0080   51.9430 C   0  0  0  0  0  0  0  0  0  0  0  0
  -57.9150  -14.3910   49.5100 C   0  0  0  0  0  0  0  0  0  0  0  0
  -59.3920  -13.0760   50.9230 C   0  0  0  0  0  0  0  0  0  0  0  0
  -50.4160  -11.6020   59.0010 C   0  0  0  0  0  0  0  0  0  0  0  0
  -58.3980   -9.5580   47.4170 C   0  0  0  0  0  0  0  0  0  0  0  0
  -53.7900  -11.8980   57.4640 C   0  0  0  0  0  0  0  0  0  0  0  0
  -50.2870  -13.1700   57.1670 C   0  0  0  0  0  0  0  0  0  0  0  0
  -58.3900  -11.4870   55.4960 C   0  0  0  0  0  0  0  0  0  0  0  0
  -58.5360   -8.6270   46.4290 C   0  0  0  0  0  0  0  0  0  0  0  0
  -60.4650   -9.8430   46.5190 C   0  0  0  0  0  0  0  0  0  0  0  0
  -52.4180  -12.1180   57.7390 C   0  0  0  0  0  0  0  0  0  0  0  0
  -51.6760  -12.9970   56.9150 C   0  0  0  0  0  0  0  0  0  0  0  0
  -54.4130  -12.5110   56.3970 C   0  0  0  0  0  0  0  0  0  0  0  0
  -55.8090  -12.1710   56.0940 C   0  0  0  0  0  0  0  0  0  0  0  0
  -59.5960  -10.3270   47.4680 C   0  0  0  0  0  0  0  0  0  0  0  0
  -58.4080  -15.1190   51.7590 C   0  0  0  0  0  0  0  0  0  0  0  0
  -58.7080  -13.2590   49.7140 C   0  0  0  0  0  0  0  0  0  0  0  0
  -49.6670  -12.4870   58.1890 C   0  0  0  0  0  0  0  0  0  0  0  0
  -56.8140  -13.1310   55.8850 C   0  0  0  0  0  0  0  0  0  0  0  0
  -58.2230  -15.6720   57.3620 C   0  0  0  0  0  0  0  0  0  0  0  0
  -59.8620  -11.4600   48.3420 C   0  0  0  0  0  0  0  0  0  0  0  0
  -57.1110  -15.5030   53.8100 C   0  0  0  0  0  0  0  0  0  0  0  0
  -56.5580  -14.6060   56.0960 C   0  0  1  0  0  0  0  0  0  0  0  0
  -58.5650  -15.9440   55.9260 C   0  0  2  0  0  0  0  0  0  0  0  0
  -58.8260  -17.4480   55.7370 C   0  0  0  0  0  0  0  0  0  0  0  0
  -60.3710   -8.0130   44.7450 C   0  0  0  0  0  0  0  0  0  0  0  0
  -58.1650  -16.0660   52.8920 C   0  0  0  0  0  0  0  0  0  0  0  0
  -56.5290  -14.3870   58.6970 C   0  0  0  0  0  0  0  0  0  0  0  0
  -55.3240  -15.1830   59.2050 C   0  0  0  0  0  0  0  0  0  0  0  0
  -47.0590  -11.8210   57.2090 C   0  0  0  0  0  0  0  0  0  0  0  0
  -58.0620  -12.7740   55.5770 N   0  0  0  0  0  0  0  0  0  0  0  0
  -59.8130   -8.7960   45.8620 N   0  0  0  0  0  0  0  0  0  0  0  0
  -57.0540  -14.9550   57.4390 N   0  0  0  0  0  0  0  0  0  0  0  0
  -57.3810  -15.4240   55.1700 N   0  0  0  0  0  0  0  0  0  0  0  0
  -58.7400  -12.2770   48.6550 N   0  0  0  0  0  0  0  0  0  0  0  0
  -58.8710  -16.0130   58.3590 O   0  0  0  0  0  0  0  0  0  0  0  0
  -61.0030  -11.8010   48.7090 O   0  0  0  0  0  0  0  0  0  0  0  0
  -56.0190  -15.1150   53.3650 O   0  0  0  0  0  0  0  0  0  0  0  0
  -47.5990  -14.1070   58.4180 O   0  0  0  0  0  0  0  0  0  0  0  0
  -47.5910  -12.0470   59.7830 O   0  0  0  0  0  0  0  0  0  0  0  0
  -54.3080  -15.1700   58.2900 F   0  0  0  0  0  0  0  0  0  0  0  0
  -55.6920  -16.4640   59.5110 F   0  0  0  0  0  0  0  0  0  0  0  0
  -47.9220  -11.1500   56.3930 F   0  0  0  0  0  0  0  0  0  0  0  0
  -46.2880  -12.6900   56.4960 F   0  0  0  0  0  0  0  0  0  0  0  0
  -47.9330  -12.6910   58.5190 S   0  0  0  0  0  0  0  0  0  0  0  0
  -57.7610   -9.4420   55.6830 H   0  0  0  0  0  0  0  0  0  0  0  0
  -51.7890  -14.3400   55.2120 H   0  0  0  0  0  0  0  0  0  0  0  0
  -52.3190  -10.7520   59.4220 H   0  0  0  0  0  0  0  0  0  0  0  0
  -55.4220  -10.0550   56.2290 H   0  0  0  0  0  0  0  0  0  0  0  0
  -54.1490  -13.9080   54.7550 H   0  0  0  0  0  0  0  0  0  0  0  0
  -57.1610  -16.1980   50.3830 H   0  0  0  0  0  0  0  0  0  0  0  0
  -59.7500  -13.8720   52.8810 H   0  0  0  0  0  0  0  0  0  0  0  0
  -57.4180  -14.5440   48.5630 H   0  0  0  0  0  0  0  0  0  0  0  0
  -60.0360  -12.2200   51.0610 H   0  0  0  0  0  0  0  0  0  0  0  0
  -49.9250  -11.0610   59.7960 H   0  0  0  0  0  0  0  0  0  0  0  0
  -57.5320   -9.6890   48.0490 H   0  0  0  0  0  0  0  0  0  0  0  0
  -54.3590  -11.2380   58.1020 H   0  0  0  0  0  0  0  0  0  0  0  0
  -49.7120  -13.8450   56.5500 H   0  0  0  0  0  0  0  0  0  0  0  0
  -59.4040  -11.2190   55.2380 H   0  0  0  0  0  0  0  0  0  0  0  0
  -57.7990   -7.8940   46.1360 H   0  0  0  0  0  0  0  0  0  0  0  0
  -61.4630  -10.2040   46.3190 H   0  0  0  0  0  0  0  0  0  0  0  0
  -55.4950  -14.7940   55.9480 H   0  0  0  0  0  0  0  0  0  0  0  0
  -59.4760  -15.4610   55.5730 H   0  0  0  0  0  0  0  0  0  0  0  0
  -57.9550  -18.0130   56.0690 H   0  0  0  0  0  0  0  0  0  0  0  0
  -59.0130  -17.6550   54.6830 H   0  0  0  0  0  0  0  0  0  0  0  0
  -59.6960  -17.7430   56.3250 H   0  0  0  0  0  0  0  0  0  0  0  0
  -59.6460   -7.2630   44.4290 H   0  0  0  0  0  0  0  0  0  0  0  0
  -61.2870   -7.5190   45.0690 H   0  0  0  0  0  0  0  0  0  0  0  0
  -60.5930   -8.6780   43.9100 H   0  0  0  0  0  0  0  0  0  0  0  0
  -57.8270  -17.0240   52.4970 H   0  0  0  0  0  0  0  0  0  0  0  0
  -59.0910  -16.2090   53.4490 H   0  0  0  0  0  0  0  0  0  0  0  0
  -56.2250  -13.3550   58.5210 H   0  0  0  0  0  0  0  0  0  0  0  0
  -57.3140  -14.4100   59.4520 H   0  0  0  0  0  0  0  0  0  0  0  0
  -54.9580  -14.7070   60.1140 H   0  0  0  0  0  0  0  0  0  0  0  0
  -46.4080  -11.0800   57.6720 H   0  0  0  0  0  0  0  0  0  0  0  0
  -57.9060  -12.1620   48.0970 H   0  0  0  0  0  0  0  0  0  0  0  0
  1  4  2  0
  1 14  1  0
  1 52  1  0
  2  5  2  0
  2 18  1  0
  2 53  1  0
  3 10  1  0
  3 17  2  0
  3 54  1  0
  4 20  1  0
  4 55  1  0
  5 19  1  0
  5 56  1  0
  6  8  2  0
  6 22  1  0
  6 57  1  0
  7  9  1  0
  7 22  2  0
  7 58  1  0
  8 23  1  0
  8 59  1  0
  9 23  2  0
  9 60  1  0
 10 24  2  0
 10 61  1  0
 11 15  2  0
 11 21  1  0
 11 62  1  0
 12 17  1  0
 12 19  2  0
 12 63  1  0
 13 18  2  0
 13 24  1  0
 13 64  1  0
 14 37  2  0
 14 65  1  0
 15 38  1  0
 15 66  1  0
 16 21  2  0
 16 38  1  0
 16 67  1  0
 17 18  1  0
 19 20  1  0
 20 25  2  0
 21 27  1  0
 22 33  1  0
 23 41  1  0
 24 51  1  0
 25 29  1  0
 25 37  1  0
 26 30  1  0
 26 39  1  0
 26 42  2  0
 27 41  1  0
 27 43  2  0
 28 33  1  0
 28 40  1  0
 28 44  2  0
 29 39  1  0
 29 40  1  0
 29 68  1  1
 30 31  1  0
 30 40  1  0
 30 69  1  6
 31 70  1  0
 31 71  1  0
 31 72  1  0
 32 38  1  0
 32 73  1  0
 32 74  1  0
 32 75  1  0
 33 76  1  0
 33 77  1  0
 34 35  1  0
 34 39  1  0
 34 78  1  0
 34 79  1  0
 35 47  1  0
 35 48  1  0
 35 80  1  0
 36 49  1  0
 36 50  1  0
 36 51  1  0
 36 81  1  0
 41 82  1  0
 45 51  2  0
 46 51  2  0
M  END
>  <Name>  (1) 
RO7781280-000

>  <SPR STAT6 KD (uM);(Num)>  (1) 
0.00208

>  <lm5_entropy_jk>  (1) 
39.42894713940261

>  <number_of_rotatable_bonds>  (1) 
12

>  <dG_FEP>  (1) 
14.01

>  <dG_SQM_Score>  (1) 
-48.07529215032355

>  <dG_SQM>  (1) 
8.11490308674891

>  <dG_EXPT>  (1) 
8.681936665037238

>  <ID>  (1) 
RO7781280-000

>  <system>  (1) 
STAT6_Neq25

$$$$
